Hello, DualSPHysics users, greetings to all. my work is in SPH, blood flow simulation.
but before simulating I want to calibrate the code by using the Morris and Sigalotti profile which are very similar.
Then I have a doubt. Can I run the Poiseuille up to what maximum viscosity number the code supports? 

Hola, usuaris de DualSPHysics, saludos a todos.  mi trabajo es en SPH, simulacion del flujo sanguineo
pero antes de simular quiero calibrar el codigo por con el perfil  de Morris y Sigalotti que se parecen mucho.
Entonces tengo una duda   Puedo correr el Poiseuille hasta que número máximo de viscosidad que soporta el Código? 
